Version 4
SHEET 1 880 680
WIRE 256 256 256 224
WIRE 224 272 192 272
WIRE 384 288 288 288
WIRE 432 288 384 288
WIRE 560 288 496 288
WIRE 128 304 128 272
WIRE 128 304 80 304
WIRE 224 304 128 304
WIRE 384 320 384 288
WIRE 560 320 560 288
WIRE 128 352 128 304
WIRE 256 352 256 320
WIRE 560 400 560 384
WIRE 192 416 192 272
WIRE 384 416 384 400
WIRE 384 416 192 416
WIRE 384 432 384 416
WIRE 384 544 384 512
WIRE 384 624 384 608
FLAG -304 336 0
FLAG -208 336 0
FLAG -304 256 Vcc
FLAG -208 256 sig
FLAG 384 624 0
FLAG 16 304 sig
FLAG 256 224 Vcc
FLAG 256 352 0
FLAG 128 192 Vcc
FLAG 128 432 0
FLAG 560 400 0
SYMBOL OpAmps/AD823 256 224 R0
SYMATTR InstName U1
SYMBOL voltage -304 240 R0
SYMATTR InstName V1
SYMATTR Value 24
SYMBOL Misc/signal -208 240 R0
SYMATTR InstName V2
SYMATTR Value SINE(2.5 2.5 40k)
SYMBOL res 368 304 R0
SYMATTR InstName R1
SYMATTR Value 10k
SYMBOL res 368 416 R0
SYMATTR InstName R2
SYMATTR Value 10k
SYMBOL cap 368 544 R0
SYMATTR InstName C1
SYMATTR Value 80n
SYMBOL cap 80 288 R90
WINDOW 0 0 32 VBottom 2
WINDOW 3 32 32 VTop 2
SYMATTR InstName C2
SYMATTR Value 100n
SYMBOL res 144 448 R180
WINDOW 0 36 76 Left 2
WINDOW 3 36 40 Left 2
SYMATTR InstName R4
SYMATTR Value 16k
SYMBOL res 144 288 R180
WINDOW 0 36 76 Left 2
WINDOW 3 36 40 Left 2
SYMATTR InstName R3
SYMATTR Value 16k
SYMBOL cap 496 272 R90
WINDOW 0 0 32 VBottom 2
WINDOW 3 32 32 VTop 2
SYMATTR InstName C3
SYMATTR Value 100n
SYMBOL cap 576 384 R180
WINDOW 0 24 56 Left 2
WINDOW 3 24 8 Left 2
SYMATTR InstName C4
SYMATTR Value 2.4p
TEXT 24 80 Left 2 !.tran 10m
